29
Coordinates from ORCA-job C:/Users/emanuele/Desktop/PlacementEssay/PlacementEssay/backup/ChemspeedPlatformAllVersions/V12/Workflows/DataAnalysisWorkflow/FeatureGeneration/calculationFiles/7296/geometryOptimization/7296
  C   2.18722184304186     -0.57294631093288     -1.36232232399948
  C   3.33546304693375     -0.98332501025665     -0.70355981757705
  C   3.60395258580445     -0.54648219716303      0.59355843817637
  C   2.68360112403687      0.31388280842974      1.20045604687481
  C   1.54198050735059      0.71186548574603      0.53202823888855
  C   1.26967387831968      0.28328205299573     -0.76560044591932
  C   0.02571152735671      0.73559507917461     -1.48355095000313
  C   -1.24467170443000      0.50232593219612     -0.71077919535958
  C   -2.12822067110748      1.53641113828254     -0.42633723333563
  C   -3.29720584396262      1.32006603193506      0.28616855817014
  C   -3.62179693463877      0.04405553783627      0.74638253820590
  C   -2.73597603111657     -1.00087828243217      0.46482622025311
  C   -1.57315736596061     -0.76887556457076     -0.24391077967204
  N   -4.82479581844689     -0.19825623449668      1.40741483097536
  N   4.78593503522664     -0.90008167817253      1.24224019982091
  H   2.00283152653100     -0.93286538332667     -2.36767085921699
  H   4.03045343169019     -1.65035966556429     -1.19968949961467
  H   2.86978475093875      0.67060506539845      2.20665661268744
  H   0.83503579480608      1.36093190023503      1.03356727094057
  H   0.10276820286730      1.79953251738840     -1.71910777534942
  H   -0.02835865237421      0.22347647153877     -2.44682734357781
  H   -1.89992999642785      2.53948702052446     -0.76678758167798
  H   -3.96504708573142      2.14911568645932      0.48789011387728
  H   -2.96615715550274     -2.00274949575251      0.80775605834331
  H   -0.89376727065207     -1.59163622738187     -0.42885507698425
  H   -4.80985421628099     -1.00040992896775      2.01564154684602
  H   -5.20591777145302      0.60329775223262      1.88267021574474
  H   5.19068125688362     -1.76552234429771      0.92469891429012
  H   4.72976300629777     -0.87954215705764      2.24723707819270
