23
Coordinates from ORCA-job C:/Users/emanuele/Desktop/PlacementEssay/PlacementEssay/backup/ChemspeedPlatformAllVersions/V12/Workflows/DataAnalysisWorkflow/FeatureGeneration/calculationFiles/16165424/geometryOptimization/16165424
  C   -2.72559633087621     -1.98293184462890     -1.96493518214713
  C   -1.86511976193540     -2.69251468037090     -1.13952223637581
  C   -0.86407182395590     -2.03314957507926     -0.44519499646442
  C   -0.70185549411652     -0.65154990606226     -0.56785550991628
  C   -1.56528226125802      0.04952308210147     -1.41234730709006
  C   -2.56981168316390     -0.60972481830996     -2.09913545102457
  C   0.35469763837557      0.07001709822874      0.16406667157611
  C   0.88098505794466     -0.41288853124504      1.36913680739643
  C   1.88060976788037      0.29407613035422      2.01381944666018
  C   2.33159479344406      1.47864655431007      1.46050341012231
  C   1.74034473648652      1.90508736358901      0.27600887551150
  N   0.78094414210726      1.22647163753204     -0.35984838671225
  C   2.15242516168983      3.17315796798233     -0.37245056223065
  O   3.00994031528646      3.91603735413181      0.05656449514572
  H   -3.50925690911300     -2.49796227890438     -2.50453766377305
  H   -1.96883005672230     -3.76480953438013     -1.04085104272962
  H   -0.18489322915990     -2.60762865793379      0.16979022218961
  H   -1.43467643719160      1.11619602586808     -1.51858809090753
  H   -3.23513470843913     -0.04979856007884     -2.74279012066192
  H   0.49514534565694     -1.32184178456089      1.80689800236674
  H   2.29231034277890     -0.07195553400645      2.94479548414640
  H   3.10772433558456      2.07691891242878      1.91532725964440
  H   1.59780605869676      3.39062457903427     -1.30521712472611
