18
Coordinates from ORCA-job C:/Users/emanuele/Desktop/PlacementEssay/PlacementEssay/backup/ChemspeedPlatformAllVersions/V12/Workflows/DataAnalysisWorkflow/FeatureGeneration/calculationFiles/1544882/geometryOptimization/1544882
  C   -2.88163060193958      0.00547462652823     -0.54388766063647
  C   -1.90781252443976     -0.95262017891745     -0.58356890272565
  C   -0.57969598667350     -0.58698727457184     -0.29613798704207
  C   0.50031664138803     -1.49203723016153     -0.30749579327982
  C   1.75291399224773     -1.03848464681202     -0.01409325050053
  C   1.91615981353180      0.32971663003130      0.29110266513109
  N   0.93394071005346      1.21251712734899      0.31384654636085
  C   -0.31414383849182      0.78105320810310      0.02577463949440
  N   -1.29513005068625      1.71731009242804      0.05980313856253
  C   -2.51895190613609      1.32786435033411     -0.21580230269116
  C   3.26045375464571      0.87131641860943      0.61720592308609
  O   4.27342351293559      0.20523728051958      0.64403192507741
  H   -3.91423002236173     -0.23287356676904     -0.75788909518319
  H   -2.13973097197713     -1.98123402564345     -0.83053019525231
  H   0.32264233606913     -2.53304729794924     -0.54807189588032
  H   2.61866907565348     -1.68451321774591     -0.00679633531887
  H   -3.28368222606330      2.09671642009746     -0.18122894802234
  H   3.25648829224424      1.95459228457025      0.83779452882036
