22
Coordinates from ORCA-job C:/Users/emanuele/Desktop/PlacementEssay/PlacementEssay/backup/ChemspeedPlatformAllVersions/V12/Workflows/DataAnalysisWorkflow/FeatureGeneration/calculationFiles/9270418/geometryOptimization/9270418
  C   -2.78882469392586      1.70044123585176      0.46475076233878
  C   -3.74662516018196      0.71221034180407      0.29719653564425
  C   -3.31361399562482     -0.58617822181661      0.06742931071795
  N   -2.03155633132138     -0.93291129446833     -0.00049366859214
  C   -1.10821494132944      0.02621173792989      0.16205882459747
  C   -1.45067946963084      1.35760137771571      0.39703173079219
  C   0.30924470406517     -0.39057618026489      0.08088351008716
  C   0.65078418549835     -1.72605360205624     -0.15461045234162
  C   1.98692442093320     -2.07915254160843     -0.22457002007670
  C   2.95212798906650     -1.10154063728967     -0.05953013889112
  C   2.52571124252094      0.20286333720799      0.17129098519808
  N   1.23903663483153      0.55668807221504      0.24090815046510
  C   3.49695398513566      1.30607006612212      0.35810346663587
  O   4.70228053863567      1.17386514013331      0.32774956135899
  H   -3.08027116959335      2.72638883401230      0.64632321440786
  H   -4.80329146484707      0.93693123713261      0.34273041586374
  H   -4.03065493387630     -1.38797057594746     -0.06879405204056
  H   -0.66978572051156      2.09170898389134      0.52118196651811
  H   -0.13696506605221     -2.45314024199934     -0.27712902219536
  H   2.26948358695938     -3.10737243547695     -0.40644940910936
  H   4.01047287883636     -1.31469742590076     -0.10370148793582
  H   3.01746378041201      2.28861179281253      0.53251681655712
