26
Coordinates from ORCA-job C:/Users/emanuele/Desktop/PlacementEssay/PlacementEssay/backup/ChemspeedPlatformAllVersions/V12/Workflows/DataAnalysisWorkflow/FeatureGeneration/calculationFiles/63433/geometryOptimization/63433
  C   4.03452925657338     -0.29361910462829     -0.91574452369644
  C   2.61899216544202     -0.24054534657815     -1.42806124965685
  O   1.76023736299548      0.06346471421434     -0.33905047556365
  C   0.39474150985551      0.05878958603275     -0.69716368023483
  C   -0.41026259921626      0.38122789158637      0.53948258800454
  O   -1.77497017655803      0.38843708818136      0.17652521247436
  C   -2.64006258892922      0.68416000044420      1.25821163043132
  C   -4.07051177468332      0.60523625767097      0.76400287582720
  N   -4.49969150443210     -0.69145279253256      0.26011661241710
  N   4.19452091326164     -1.39923308469142      0.02198246159041
  H   4.28720294177171      0.69240561031108     -0.49976938157486
  H   4.69273511300071     -0.45893816246739     -1.77060321871489
  H   2.52709930322598      0.52642254552482     -2.20789386977821
  H   2.34494583295482     -1.20855979240950     -1.86385529248839
  H   0.19093374835328      0.80455295593270     -1.47536127595442
  H   0.09604446350268     -0.92018696145352     -1.09075289906982
  H   -0.10475192281165      1.35660809676954      0.93703561004088
  H   -0.21561039253079     -0.36844180306077      1.31644298840872
  H   -2.48002921634544     -0.03432919486672      2.07563526606335
  H   -2.42622271304472      1.68704725918384      1.65458194229929
  H   -4.20435808211935      1.34028577213076     -0.03126617539474
  H   -4.73257056982286      0.90513601695748      1.57837297462281
  H   -3.85422633701713     -0.98702926758148     -0.46173554942494
  H   -4.43244284512971     -1.38433497016630      0.99673697295824
  H   3.56987035373909     -1.25049447136461      0.80424627895225
  H   5.13385875796429     -1.40032184313953      0.39788417746158
