16
Coordinates from ORCA-job C:/Users/emanuele/Desktop/PlacementEssay/PlacementEssay/backup/ChemspeedPlatformAllVersions/V12/Workflows/DataAnalysisWorkflow/FeatureGeneration/calculationFiles/8639750/geometryOptimization/8639750
  C   -2.58858237552993     -0.40696694084896      0.13555455013765
  C   -1.11019399406221     -0.20462387759162      0.07763890286179
  C   -0.23425216482806     -1.05044695198841      0.75994930634189
  N   1.08821311763839     -0.92383783630902      0.75303279770668
  C   1.61041656677846      0.08373857853633      0.04214889746350
  C   0.83040651171925      0.98588428428281     -0.67727570725944
  C   -0.54073206558510      0.83565914447509     -0.65585629446132
  C   3.08532890824083      0.18557805819651      0.06380460569846
  O   3.72461215678510      1.03485280796195     -0.52268138165846
  H   -3.08610500826530      0.45651705323316      0.57753446968145
  H   -2.84997738490774     -1.28098062377013      0.72685835746671
  H   -3.00776928465153     -0.53927868479876     -0.86182210348747
  H   -0.63066584101441     -1.87537922105254      1.34298275201075
  H   1.31380910042667      1.77728023349979     -1.23246362463954
  H   -1.17539663861902      1.52023112610142     -1.20526683571837
  H   3.57088739587459     -0.59822814992761      0.67586030785573
