23
Coordinates from ORCA-job C:/Users/emanuele/Desktop/PlacementEssay/PlacementEssay/backup/ChemspeedPlatformAllVersions/V12/Workflows/DataAnalysisWorkflow/FeatureGeneration/calculationFiles/1265903/geometryOptimization/1265903
  C   2.04885123302079     -1.12732441658874      1.90419564436589
  O   2.23927760752500      0.15868521538805      1.30934562852941
  C   1.38162211196092      0.73829035682803      0.44677053193014
  C   1.78706021488260      1.98412484273893     -0.00268541171411
  C   1.02109797057487      2.72634459690960     -0.89848215098346
  C   -0.17534057162654      2.24678238390787     -1.37452554375636
  C   -0.63144684090866      0.99235498964000     -0.95188760360634
  C   0.13964127005618      0.20370276243656     -0.02643665386091
  N   -0.28657287128098     -1.00589767500594      0.39084009872083
  C   -1.43674245862497     -1.47613553633605     -0.06062753727679
  C   -2.26183511685383     -0.78022768700675     -0.96818700651779
  C   -1.85216597998150      0.44365185249131     -1.40367565677283
  C   -1.82075303184384     -2.80633392541591      0.45136367343602
  O   -2.83941026413589     -3.39384951637293      0.14785572830695
  H   1.14829345484082     -1.15907029140946      2.50972696372316
  H   2.92661766163889     -1.26532379531272      2.52940252195766
  H   1.99587384454533     -1.91059408463533      1.15412285670295
  H   2.72692968424389      2.36843814402167      0.36667430989911
  H   1.38300674424989      3.69430411403965     -1.21827322826674
  H   -0.77019141160328      2.82338371763361     -2.07009898318241
  H   -3.18835891597698     -1.23245432739514     -1.29062013852253
  H   -2.45287555386075      1.01465906432900     -2.10038528621512
  H   -1.08257878084197     -3.23751278488531      1.15558724310325
