47
Coordinates from ORCA-job C:/Users/emanuele/Desktop/PlacementEssay/PlacementEssay/backup/ChemspeedPlatformAllVersions/V12/Workflows/DataAnalysisWorkflow/FeatureGeneration/calculationFiles/548388/geometryOptimization/548388
  C   -3.80586587813617     -0.39273406481798     -2.16518554704933
  C   -2.62004926474251     -0.55889964831532     -2.87438834032125
  C   -1.39056041407981     -0.44740284260389     -2.23273766013727
  C   -1.36174452688370     -0.16139870926710     -0.88283441381583
  C   -2.55363825891888      0.00335252523016     -0.16543112845886
  C   -3.78143833344139     -0.11193595494596     -0.80587131092102
  C   -2.22555248137187      0.29173960490854      1.22607411453699
  C   -3.04403867033018      0.54271330168700      2.32061825243930
  C   -2.45805256937994      0.78725908443907      3.55507281776068
  C   -1.07332340299653      0.78369935950661      3.69367279539331
  C   -0.25331005365736      0.53688117852287      2.59709149818847
  C   -0.83203708327504      0.28634940578986      1.36937609292390
  C   -0.14983191781802      0.00346463093228      0.03241104689198
  C   0.70734138744620      1.21048189988867     -0.33549174856399
  C   0.19330413159402      2.27533997066772     -1.06817463735252
  C   0.94341042270417      3.41145634272500     -1.31707344448269
  C   2.24587066962820      3.52981824858141     -0.82993584945489
  C   2.76614846251989      2.46416074578346     -0.09141673541585
  C   2.00670517180384      1.33499258754998      0.15147000003251
  N   3.02973994075766      4.63973811511999     -1.13578834382769
  C   0.63922744168448     -1.30129938053279      0.03267360199613
  C   0.37919247593011     -2.31450648976479      0.94943483824739
  C   1.03507417778646     -3.53179516609968      0.88853898645095
  C   1.97931677325251     -3.78697090195199     -0.10681085206276
  C   2.24224072999124     -2.77380122260710     -1.03207392725462
  C   1.57982754138262     -1.56267257860286     -0.96147244673751
  N   2.69350030453589     -4.98245421542321     -0.13078382609020
  H   -4.75448085785984     -0.48576259213165     -2.67759470127277
  H   -2.65427511290710     -0.77973742135747     -3.93305538106640
  H   -0.47181896243073     -0.58062272589115     -2.78774135105945
  H   -4.70696012377079      0.01299831440456     -0.25859786636552
  H   -4.12164233531096      0.54975845502786      2.21808955527580
  H   -3.08264967473741      0.98471187274074      4.41644670665455
  H   -0.63055136401100      0.97792333202858      4.66163279793409
  H   0.82252211879427      0.53838584210168      2.70880788690814
  H   -0.81547580736778      2.22187603504892     -1.45238801265088
  H   0.51433948988601      4.21740890319612     -1.90040176615361
  H   3.77796647523834      2.52142946803570      0.29202047166683
  H   2.44300778739277      0.52502393611252      0.71949210121186
  H   2.50513355205359      5.47762286232178     -1.32722436762298
  H   3.76602104052759      4.82287866431472     -0.47378695542001
  H   -0.35215997184793     -2.15554507383447      1.72921132967212
  H   0.81440230691184     -4.29419138569265      1.62612780805989
  H   2.97724837607997     -2.93721403922898     -1.81130297709334
  H   1.81408961623531     -0.79696547189273     -1.68807326934626
  H   2.21574516373373     -5.75944247639884      0.29580074424726
  H   3.04808650740428     -5.23610932530520     -1.03843058649465
