27
Coordinates from ORCA-job C:/Users/emanuele/Desktop/PlacementEssay/PlacementEssay/backup/ChemspeedPlatformAllVersions/V12/Workflows/DataAnalysisWorkflow/FeatureGeneration/calculationFiles/7298/geometryOptimization/7298
  C   -3.51720860974136      0.07355260108226     -0.88293159356875
  C   -2.30196169232200      0.51784525246873     -1.37527188643591
  C   -1.21686953446188      0.66810745729469     -0.52547631787320
  C   -1.35497442991703      0.36391301638123      0.82249311689023
  C   -2.56720741547151     -0.09274297240282      1.30872715996841
  C   -3.67066605480267     -0.25013777243769      0.46639151371248
  N   -4.91091712136048     -0.64215427663710      0.97525444509982
  O   -0.05264202915084      1.18829809594905     -1.05751546405464
  C   1.15743738772518      0.67242070168305     -0.63472244096866
  C   1.37076517100985     -0.68799489353942     -0.45433901904525
  C   2.62373711432243     -1.15056617391647     -0.09307608987909
  C   3.69376732301920     -0.27104984394702      0.08960314089325
  C   3.46432902443131      1.09149912195640     -0.10971585049909
  C   2.20855577549613      1.55897442868431     -0.45786510493719
  N   4.97269937292933     -0.74928095431455      0.38349064144309
  H   -4.35769228305961     -0.03071381800508     -1.55823331704434
  H   -2.18652260574845      0.75965593148652     -2.42248873682986
  H   -0.51308047995231      0.48224500129985      1.48942357555160
  H   -2.66352576597184     -0.31842016882892      2.36392439400362
  H   -4.85311816053086     -1.20479751113134      1.80843824280379
  H   -5.51187759309947     -1.08154334243085      0.29702312211688
  H   0.55557594950071     -1.38344872477239     -0.59369324463008
  H   2.77856698073785     -2.21495653266466      0.03637429645967
  H   4.27723108720138      1.79614255708096      0.01669144774194
  H   2.03438813636412      2.61583080722257     -0.60335294095744
  H   4.97930685416547     -1.62893436462773      0.87366329383824
  H   5.56190459868736     -0.08174362293357      0.85406261620049
