20
Coordinates from ORCA-job C:/Users/emanuele/Desktop/PlacementEssay/PlacementEssay/backup/ChemspeedPlatformAllVersions/V12/Workflows/DataAnalysisWorkflow/FeatureGeneration/calculationFiles/666291/geometryOptimization/666291
  C   -2.03345668088158     -1.00450983665651     -0.81576370710987
  N   -1.06387390807275     -0.10336599654452     -0.21901734426565
  C   0.28797945149555     -0.31519439877724     -0.11557467173263
  C   1.11151958560962     -1.36476526452779     -0.51321535732425
  C   2.45982049753809     -1.23872603086582     -0.23951959996998
  C   2.98453438917324     -0.10702679324616      0.40977916339017
  C   2.17216092590619      0.93386192983263      0.80420921037536
  C   0.80358546860483      0.83371168518063      0.54027266895106
  N   -0.20861417146225      1.70726584276782      0.82093136269270
  C   -1.30861756673344      1.12819518169776      0.36029717537726
  C   -2.61406767163234      1.75415206330365      0.47230237495985
  O   -3.66184517282522      1.27601358807440      0.07085047931150
  H   -1.51307089679320     -1.88619677566122     -1.17322147615914
  H   -2.54139370776914     -0.52434479767331     -1.64616820805176
  H   -2.78069996173957     -1.29857286241161     -0.08559790382704
  H   0.72943354758185     -2.24355196341637     -1.01375356013489
  H   3.13142458339183     -2.03380227518448     -0.53333957219590
  H   4.04777272091518     -0.05849710377201      0.60048268180993
  H   2.56583028651621      1.80763917679038      1.30375581613287
  H   -2.56842171882310      2.73771563108981      0.97229146777040
