16
Coordinates from ORCA-job C:/Users/emanuele/Desktop/PlacementEssay/PlacementEssay/backup/ChemspeedPlatformAllVersions/V12/Workflows/DataAnalysisWorkflow/FeatureGeneration/calculationFiles/63902/geometryOptimization/63902
  C   -2.20851282153500     -1.15423609073573      0.23347907410576
  C   -0.98039649397310     -0.31885043666404      0.05835859122310
  C   -1.07189045072448      1.04048497451143     -0.25786777996327
  C   0.08200890322644      1.78827966357457     -0.41270027727190
  C   1.30798162785427      1.16661800805345     -0.24953040286809
  C   1.31386571117017     -0.18663783078398      0.06314787886521
  N   0.20065887924129     -0.91886757685275      0.21525112313955
  C   2.58456055095909     -0.92427766331069      0.25330860190676
  O   3.68807220255925     -0.42885265000308      0.15759919268230
  H   -2.84034550986905     -0.76340814173133      1.03122554806286
  H   -2.81065287511318     -1.16563864426345     -0.67525258563246
  H   -1.93057976629789     -2.17393240057217      0.47843221476537
  H   -2.04462894130652      1.49936812070372     -0.37913905520042
  H   0.02484421226113      2.84063858037189     -0.65691524734105
  H   2.24534206747210      1.69342329726851     -0.35617920323021
  H   2.43967170407548     -1.99411220956633      0.49678332675651
